<?xml version="1.0" encoding="UTF-8"?>

<!-- generated on 2025-09-20 22:12:45 by Eclipse SUMO GUI Version 1.24.0
<sumoConfiguration xmlns:xsi="http://www.w3.org/2001/XMLSchema-instance" xsi:noNamespaceSchemaLocation="http://sumo.dlr.de/xsd/sumoConfiguration.xsd">

    <input>
        <net-file value="grid_tls.net.xml"/>
        <route-files value="grid_tls_routes.rou.xml"/>
    </input>

    <output>
        <fcd-output value="fcd.xml"/>
        <queue-output value="queue.xml"/>
        <tripinfo-output value="tripinfo.xml"/>
    </output>

    <time>
        <begin value="0"/>
        <end value="3600"/>
        <step-length value="1.0"/>
    </time>

    <traci_server>
        <remote-port value="55971"/>
    </traci_server>

    <gui_only>
        <start value="true"/>
    </gui_only>

</sumoConfiguration>
