<configuration>
  <input>
    <net-file value="grid_tls.net.xml"/>
    <route-files value="grid_tls_routes.rou.xml"/>
  </input>
  <time>
    <begin value="0"/>
    <end value="3600"/>
    <step-length value="1.0"/>
  </time>
  <report>
    <tripinfo-output value="tripinfo.xml"/>
    <fcd-output value="fcd.xml"/>
    <queue-output value="queue.xml"/>
  </report>
</configuration>
